Dude
New line...
Newest line... 09-10-2014
Newester line... 09-10-2014